2024_89_CemigReconfigurationCases/1_AlimsCemig/VCS11/VCS11CargaBT_Dez.dss
new load.3000027306M1 bus1=RML1052878860.1.2.3.0,Phases=3,kv=0.22,kW=0.06422,pf=0.92,Vminpu=0.92,Vmaxpu=1.5,model=1,daily=COM1_2,status=variable
new load.3000027317M1 bus1=RML1052878860.1.2.3.0,Phases=3,kv=0.22,kW=0.21922,pf=0.92,Vminpu=0.92,Vmaxpu=1.5,model=1,daily=COM1_2,status=variable
new load.3000027325M1 bus1=RML1051843420.1.2.3.0,Phases=3,kv=0.22,kW=0.64806,pf=0.92,Vminpu=0.92,Vmaxpu=1.5,model=1,daily=RES2_1,status=variable
new load.3000027333M1 bus1=RML1051843350.1.2.3.0,Phases=3,kv=0.22,kW=0.89492,pf=0.92,Vminpu=0.92,Vmaxpu=1.5,model=1,daily=RES2_1,status=variable
new load.3000027341M1 bus1=RML1051843350.1.2.3.0,Phases=3,kv=0.22,kW=0.70394,pf=0.92,Vminpu=0.92,Vmaxpu=1.5,model=1,daily=COM2_1,status=variable
new load.3000027357M1 bus1=RML1051843350.1.2.3.0,Phases=3,kv=0.22,kW=3.81642,pf=0.92,Vminpu=0.92,Vmaxpu=1.5,model=1,daily=RES3_1,status=variable
new load.3000027365M1 bus1=RML1051843350.1.2.3.0,Phases=3,kv=0.22,kW=0.01052,pf=0.92,Vminpu=0.92,Vmaxpu=1.5,model=1,daily=RES1_1,status=variable
new load.3000027373M1 bus1=RML1053001122.1.2.3.0,Phases=3,kv=0.22,kW=0.79938,pf=0.92,Vminpu=0.92,Vmaxpu=1.5,model=1,daily=COM1_2,status=variable
new load.3000027389M1 bus1=RML1051844344.1.2.3.0,Phases=3,kv=0.22,kW=0.62954,pf=0.92,Vminpu=0.92,Vmaxpu=1.5,model=1,daily=RES2_1,status=variable
new load.3000027398M1 bus1=RML1051838429.1.3.0,Phases=2,kv=0.22,kW=0.90728,pf=0.92,Vminpu=0.92,Vmaxpu=1.5,model=1,daily=RES2_1,status=variable
new load.3000027406M1 bus1=RML1051838415.1.2.3.0,Phases=3,kv=0.22,kW=0.79618,pf=0.92,Vminpu=0.92,Vmaxpu=1.5,model=1,daily=RES2_1,status=variable
new load.3000027445M1 bus1=RML1051839003.1.0,Phases=1,kv=0.127,kW=3.62318,pf=0.92,Vminpu=0.92,Vmaxpu=1.5,model=1,daily=RES3_1,status=variable
new load.3000027464M1 bus1=RML1051839213.3.0,Phases=1,kv=0.127,kW=0.186,pf=0.92,Vminpu=0.92,Vmaxpu=1.5,model=1,daily=COM1_2,status=variable
new load.3000027475M1 bus1=RML1051839143.2.3.0,Phases=2,kv=0.22,kW=0.10492,pf=0.92,Vminpu=0.92,Vmaxpu=1.5,model=1,daily=RES2_1,status=variable
new load.3000027484M1 bus1=RML1051839017.2.3.0,Phases=2,kv=0.22,kW=3.7633,pf=0.92,Vminpu=0.92,Vmaxpu=1.5,model=1,daily=RES4_1,status=variable
new load.3000027492M1 bus1=RML1051838968.1.3.0,Phases=2,kv=0.22,kW=0.13666,pf=0.92,Vminpu=0.92,Vmaxpu=1.5,model=1,daily=RES1_1,status=variable
new load.3000027556M1 bus1=RML1051838548.1.2.3.0,Phases=3,kv=0.22,kW=3.33332,pf=0.92,Vminpu=0.92,Vmaxpu=1.5,model=1,daily=RES3_1,status=variable
new load.3000027564M1 bus1=RML1051838548.1.2.3.0,Phases=3,kv=0.22,kW=0.54312,pf=0.92,Vminpu=0.92,Vmaxpu=1.5,model=1,daily=RES2_1,status=variable
new load.3000027592M1 bus1=RML1051842461.1.2.3.0,Phases=3,kv=0.22,kW=0.00222,pf=0.92,Vminpu=0.92,Vmaxpu=1.5,model=1,daily=COM1_2,status=variable
new load.3000027600M1 bus1=RML1051842461.1.2.3.0,Phases=3,kv=0.22,kW=0.00664,pf=0.92,Vminpu=0.92,Vmaxpu=1.5,model=1,daily=COM1_2,status=variable
new load.3000027309M1 bus1=RML1052878860.1.2.3.0,Phases=3,kv=0.22,kW=0.60508,pf=0.92,Vminpu=0.92,Vmaxpu=1.5,model=1,daily=COM2_1,status=variable
new load.3000027319M1 bus1=RML1052878860.1.2.3.0,Phases=3,kv=0.22,kW=0.14836,pf=0.92,Vminpu=0.92,Vmaxpu=1.5,model=1,daily=COM1_2,status=variable
new load.3000027327M1 bus1=RML1051843420.1.2.3.0,Phases=3,kv=0.22,kW=0.45672,pf=0.92,Vminpu=0.92,Vmaxpu=1.5,model=1,daily=RES2_1,status=variable
new load.3000027335M1 bus1=RML1051843350.1.2.3.0,Phases=3,kv=0.22,kW=0.87024,pf=0.92,Vminpu=0.92,Vmaxpu=1.5,model=1,daily=RES2_1,status=variable
new load.3000027343M1 bus1=RML1051843350.1.2.3.0,Phases=3,kv=0.22,kW=0.25908,pf=0.92,Vminpu=0.92,Vmaxpu=1.5,model=1,daily=COM1_2,status=variable
new load.3000027351M1 bus1=RML1051843350.1.2.3.0,Phases=3,kv=0.22,kW=0.86406,pf=0.92,Vminpu=0.92,Vmaxpu=1.5,model=1,daily=RES2_1,status=variable
new load.3000027359M1 bus1=RML1051843350.1.2.3.0,Phases=3,kv=0.22,kW=0.56766,pf=0.92,Vminpu=0.92,Vmaxpu=1.5,model=1,daily=RES1_1,status=variable
new load.3000027367M1 bus1=RML1051843413.1.3.0,Phases=2,kv=0.22,kW=3.57446,pf=0.92,Vminpu=0.92,Vmaxpu=1.5,model=1,daily=RES4_1,status=variable
new load.3000027375M1 bus1=RML1053001122.1.2.3.0,Phases=3,kv=0.22,kW=0.45672,pf=0.92,Vminpu=0.92,Vmaxpu=1.5,model=1,daily=RES2_1,status=variable
new load.3000027383M1 bus1=RML1051843315.1.2.3.0,Phases=3,kv=0.22,kW=0.7468,pf=0.92,Vminpu=0.92,Vmaxpu=1.5,model=1,daily=RES2_1,status=variable
new load.3000027408M1 bus1=RML1051838415.1.2.3.0,Phases=3,kv=0.22,kW=0.56782,pf=0.92,Vminpu=0.92,Vmaxpu=1.5,model=1,daily=RES2_1,status=variable
new load.3000027417M1 bus1=RML1051838359.1.2.3.0,Phases=3,kv=0.22,kW=3.99356,pf=0.92,Vminpu=0.92,Vmaxpu=1.5,model=1,daily=RES3_1,status=variable
new load.3000027458M1 bus1=RML1051839192.1.2.0,Phases=2,kv=0.22,kW=0.50458,pf=0.92,Vminpu=0.92,Vmaxpu=1.5,model=1,daily=RES1_1,status=variable
new load.3000027466M1 bus1=RML1051839171.1.2.3.0,Phases=3,kv=0.22,kW=0.80234,pf=0.92,Vminpu=0.92,Vmaxpu=1.5,model=1,daily=RES2_1,status=variable
new load.3000027477M1 bus1=RML1051839122.3.0,Phases=1,kv=0.127,kW=0.7468,pf=0.92,Vminpu=0.92,Vmaxpu=1.5,model=1,daily=RES2_1,status=variable
new load.3000027486M1 bus1=RML1051838996.2.3.0,Phases=2,kv=0.22,kW=2.7053,pf=0.92,Vminpu=0.92,Vmaxpu=1.5,model=1,daily=RES3_1,status=variable
new load.3000027542M1 bus1=RML1051838310.1.2.3.0,Phases=3,kv=0.22,kW=1.83412,pf=0.92,Vminpu=0.92,Vmaxpu=1.5,model=1,daily=COM3_1,status=variable
new load.3000027550M1 bus1=RML1051838492.1.2.3.0,Phases=3,kv=0.22,kW=4.92332,pf=0.92,Vminpu=0.92,Vmaxpu=1.5,model=1,daily=RES4_1,status=variable
new load.3000027558M1 bus1=RML1051838548.1.2.3.0,Phases=3,kv=0.22,kW=2.94686,pf=0.92,Vminpu=0.92,Vmaxpu=1.5,model=1,daily=RES3_1,status=variable
new load.3000027566M1 bus1=RML1051838548.1.2.3.0,Phases=3,kv=0.22,kW=2.22222,pf=0.92,Vminpu=0.92,Vmaxpu=1.5,model=1,daily=RES3_1,status=variable
new load.3000027577M1 bus1=RML1051843378.1.2.3.0,Phases=3,kv=0.22,kW=0.60276,pf=0.92,Vminpu=0.92,Vmaxpu=1.5,model=1,daily=COM3_1,status=variable
new load.3000027586M1 bus1=RML1051843399.1.2.0,Phases=2,kv=0.22,kW=0.58868,pf=0.92,Vminpu=0.92,Vmaxpu=1.5,model=1,daily=RES1_1,status=variable
new load.3000027602M1 bus1=RML1051842419.1.2.3.0,Phases=3,kv=0.22,kW=0.24136,pf=0.92,Vminpu=0.92,Vmaxpu=1.5,model=1,daily=COM1_2,status=variable
new load.3000027304M1 bus1=RML1052878860.1.2.3.0,Phases=3,kv=0.22,kW=0.1085,pf=0.92,Vminpu=0.92,Vmaxpu=1.5,model=1,daily=COM1_2,status=variable
new load.3000027316M1 bus1=RML1052878860.1.2.3.0,Phases=3,kv=0.22,kW=0.57818,pf=0.92,Vminpu=0.92,Vmaxpu=1.5,model=1,daily=RES1_1,status=variable
new load.3000027324M1 bus1=RML1051843420.1.2.3.0,Phases=3,kv=0.22,kW=0.75914,pf=0.92,Vminpu=0.92,Vmaxpu=1.5,model=1,daily=RES2_1,status=variable
new load.3000027332M1 bus1=RML1051843350.1.2.3.0,Phases=3,kv=0.22,kW=0.74636,pf=0.92,Vminpu=0.92,Vmaxpu=1.5,model=1,daily=RES1_1,status=variable
new load.3000027340M1 bus1=RML1051843350.1.2.3.0,Phases=3,kv=0.22,kW=0.93558,pf=0.92,Vminpu=0.92,Vmaxpu=1.5,model=1,daily=RES1_1,status=variable
new load.3000027348M1 bus1=RML1051843350.1.2.3.0,Phases=3,kv=0.22,kW=0.8147,pf=0.92,Vminpu=0.92,Vmaxpu=1.5,model=1,daily=RES2_1,status=variable
new load.3000027356M1 bus1=RML1051843350.1.2.3.0,Phases=3,kv=0.22,kW=0.46906,pf=0.92,Vminpu=0.92,Vmaxpu=1.5,model=1,daily=RES2_1,status=variable
new load.3000027364M1 bus1=RML1051843350.1.2.3.0,Phases=3,kv=0.22,kW=0.8147,pf=0.92,Vminpu=0.92,Vmaxpu=1.5,model=1,daily=RES2_1,status=variable
new load.3000027372M1 bus1=RML1053001122.1.2.3.0,Phases=3,kv=0.22,kW=0.72534,pf=0.92,Vminpu=0.92,Vmaxpu=1.5,model=1,daily=RES1_1,status=variable
new load.3000027388M1 bus1=RML1051844358.1.0,Phases=1,kv=0.127,kW=2.99516,pf=0.92,Vminpu=0.92,Vmaxpu=1.5,model=1,daily=RES3_1,status=variable
new load.3000027397M1 bus1=RML1051838464.1.2.3.0,Phases=3,kv=0.22,kW=7.9174,pf=0.92,Vminpu=0.92,Vmaxpu=1.5,model=1,daily=COM4_1,status=variable
new load.3000027405M1 bus1=RML1051838415.1.2.3.0,Phases=3,kv=0.22,kW=2.38324,pf=0.92,Vminpu=0.92,Vmaxpu=1.5,model=1,daily=RES3_1,status=variable
new load.3000027414M1 bus1=RML1051838387.3.0,Phases=1,kv=0.127,kW=2.19002,pf=0.92,Vminpu=0.92,Vmaxpu=1.5,model=1,daily=RES3_1,status=variable
new load.3000027422M1 bus1=RML1051838338.1.0,Phases=1,kv=0.127,kW=1.24672,pf=0.92,Vminpu=0.92,Vmaxpu=1.5,model=1,daily=RES2_1,status=variable
new load.3000027444M1 bus1=RML1051839010.2.0,Phases=1,kv=0.127,kW=0.9875,pf=0.92,Vminpu=0.92,Vmaxpu=1.5,model=1,daily=RES2_1,status=variable
new load.3000027453M1 bus1=RML1051839129.3.0,Phases=1,kv=0.127,kW=0.59868,pf=0.92,Vminpu=0.92,Vmaxpu=1.5,model=1,daily=RES2_1,status=variable
new load.3000027483M1 bus1=RML1051839038.2.3.0,Phases=2,kv=0.22,kW=0.7779,pf=0.92,Vminpu=0.92,Vmaxpu=1.5,model=1,daily=RES1_1,status=variable
new load.3000027491M1 bus1=RML1051838968.1.3.0,Phases=2,kv=0.22,kW=0.85172,pf=0.92,Vminpu=0.92,Vmaxpu=1.5,model=1,daily=RES2_1,status=variable
new load.3000027547M1 bus1=RML1051838443.2.3.0,Phases=2,kv=0.22,kW=0.6272,pf=0.92,Vminpu=0.92,Vmaxpu=1.5,model=1,daily=COM2_1,status=variable
new load.3000027555M1 bus1=RML1051838548.1.2.3.0,Phases=3,kv=0.22,kW=0.15768,pf=0.92,Vminpu=0.92,Vmaxpu=1.5,model=1,daily=RES1_1,status=variable
new load.3000027563M1 bus1=RML1051838548.1.2.3.0,Phases=3,kv=0.22,kW=2.43156,pf=0.92,Vminpu=0.92,Vmaxpu=1.5,model=1,daily=RES3_1,status=variable
new load.3000027571M1 bus1=RML1051838534.1.2.3.0,Phases=3,kv=0.22,kW=5.89324,pf=0.92,Vminpu=0.92,Vmaxpu=1.5,model=1,daily=RES5_2,status=variable
new load.3000027591M1 bus1=RML1051842461.1.2.3.0,Phases=3,kv=0.22,kW=0.01108,pf=0.92,Vminpu=0.92,Vmaxpu=1.5,model=1,daily=COM1_2,status=variable
new load.3000027599M1 bus1=RML1051842461.1.2.3.0,Phases=3,kv=0.22,kW=0.04204,pf=0.92,Vminpu=0.92,Vmaxpu=1.5,model=1,daily=RES1_1,status=variable
new load.3000027311M1 bus1=RML1052878860.1.2.3.0,Phases=3,kv=0.22,kW=0.06644,pf=0.92,Vminpu=0.92,Vmaxpu=1.5,model=1,daily=COM1_2,status=variable
new load.3000027320M1 bus1=RML1051843427.1.2.3.0,Phases=3,kv=0.22,kW=0.1683,pf=0.92,Vminpu=0.92,Vmaxpu=1.5,model=1,daily=COM1_2,status=variable
new load.3000027328M1 bus1=RML1051843420.1.2.3.0,Phases=3,kv=0.22,kW=0.10512,pf=0.92,Vminpu=0.92,Vmaxpu=1.5,model=1,daily=RES1_1,status=variable
new load.3000027336M1 bus1=RML1051843350.1.2.3.0,Phases=3,kv=0.22,kW=1.06156,pf=0.92,Vminpu=0.92,Vmaxpu=1.5,model=1,daily=RES2_1,status=variable
new load.3000027344M1 bus1=RML1051843350.1.2.3.0,Phases=3,kv=0.22,kW=0.58868,pf=0.92,Vminpu=0.92,Vmaxpu=1.5,model=1,daily=RES1_1,status=variable
new load.3000027352M1 bus1=RML1051843350.1.2.3.0,Phases=3,kv=0.22,kW=2.6892,pf=0.92,Vminpu=0.92,Vmaxpu=1.5,model=1,daily=RES3_1,status=variable
new load.3000027360M1 bus1=RML1051843350.1.2.3.0,Phases=3,kv=0.22,kW=0.6156,pf=0.92,Vminpu=0.92,Vmaxpu=1.5,model=1,daily=COM1_2,status=variable
new load.3000027368M1 bus1=RML1053001122.1.2.3.0,Phases=3,kv=0.22,kW=0.33658,pf=0.92,Vminpu=0.92,Vmaxpu=1.5,model=1,daily=COM1_2,status=variable
new load.3000027376M1 bus1=RML1053001122.1.2.3.0,Phases=3,kv=0.22,kW=0.1838,pf=0.92,Vminpu=0.92,Vmaxpu=1.5,model=1,daily=COM1_2,status=variable
new load.3000027384M1 bus1=RML1051843315.1.2.3.0,Phases=3,kv=0.22,kW=0.45054,pf=0.92,Vminpu=0.92,Vmaxpu=1.5,model=1,daily=RES2_1,status=variable
new load.3000027392M1 bus1=RML1051838541.1.2.3.0,Phases=3,kv=0.22,kW=0.40744,pf=0.92,Vminpu=0.92,Vmaxpu=1.5,model=1,daily=COM1_2,status=variable
new load.3000027401M1 bus1=RML1051838415.1.2.3.0,Phases=3,kv=0.22,kW=2.43156,pf=0.92,Vminpu=0.92,Vmaxpu=1.5,model=1,daily=RES3_1,status=variable
new load.3000027410M1 bus1=RML1051838457.1.2.3.0,Phases=3,kv=0.22,kW=0.42586,pf=0.92,Vminpu=0.92,Vmaxpu=1.5,model=1,daily=RES2_1,status=variable
new load.3000027418M1 bus1=RML1051838359.1.2.3.0,Phases=3,kv=0.22,kW=0.91962,pf=0.92,Vminpu=0.92,Vmaxpu=1.5,model=1,daily=RES2_1,status=variable
new load.3000027427M1 bus1=RML1051838317.1.0,Phases=1,kv=0.127,kW=4.00966,pf=0.92,Vminpu=0.92,Vmaxpu=1.5,model=1,daily=RES3_1,status=variable
new load.3000027448M1 bus1=RML1051839031.2.0,Phases=1,kv=0.127,kW=0.43402,pf=0.92,Vminpu=0.92,Vmaxpu=1.5,model=1,daily=COM1_2,status=variable
new load.3000027459M1 bus1=RML1051839192.1.2.0,Phases=2,kv=0.22,kW=0.80944,pf=0.92,Vminpu=0.92,Vmaxpu=1.5,model=1,daily=RES1_1,status=variable
new load.3000027467M1 bus1=RML1051839171.1.2.3.0,Phases=3,kv=0.22,kW=2.88244,pf=0.92,Vminpu=0.92,Vmaxpu=1.5,model=1,daily=RES3_1,status=variable
new load.3000027478M1 bus1=RML1051839115.1.3.0,Phases=2,kv=0.22,kW=1.562,pf=0.92,Vminpu=0.92,Vmaxpu=1.5,model=1,daily=RES3_1,status=variable
new load.3000027487M1 bus1=RML1051838996.2.3.0,Phases=2,kv=0.22,kW=0.71482,pf=0.92,Vminpu=0.92,Vmaxpu=1.5,model=1,daily=RES1_1,status=variable
new load.3000027543M1 bus1=RML1051838380.1.2.3.0,Phases=3,kv=0.22,kW=0.28344,pf=0.92,Vminpu=0.92,Vmaxpu=1.5,model=1,daily=COM1_2,status=variable
new load.3000027551M1 bus1=RML1051838485.1.2.3.0,Phases=3,kv=0.22,kW=3.52656,pf=0.92,Vminpu=0.92,Vmaxpu=1.5,model=1,daily=RES3_1,status=variable
new load.3000027559M1 bus1=RML1051838548.1.2.3.0,Phases=3,kv=0.22,kW=2.89854,pf=0.92,Vminpu=0.92,Vmaxpu=1.5,model=1,daily=RES3_1,status=variable
new load.3000027567M1 bus1=RML1051838548.1.2.3.0,Phases=3,kv=0.22,kW=1.28376,pf=0.92,Vminpu=0.92,Vmaxpu=1.5,model=1,daily=RES2_1,status=variable
new load.3000027578M1 bus1=RML1051843378.1.2.3.0,Phases=3,kv=0.22,kW=0.29008,pf=0.92,Vminpu=0.92,Vmaxpu=1.5,model=1,daily=COM1_2,status=variable
new load.3000027587M1 bus1=RML1052878874.1.2.3.0,Phases=3,kv=0.22,kW=1.57292,pf=0.92,Vminpu=0.92,Vmaxpu=1.5,model=1,daily=COM3_1,status=variable
new load.3000027595M1 bus1=RML1051842461.1.2.3.0,Phases=3,kv=0.22,kW=0.2458,pf=0.92,Vminpu=0.92,Vmaxpu=1.5,model=1,daily=COM1_2,status=variable
new load.3000027603M1 bus1=RML1051842419.1.2.3.0,Phases=3,kv=0.22,kW=0.55046,pf=0.92,Vminpu=0.92,Vmaxpu=1.5,model=1,daily=COM2_1,status=variable
new load.3000027322M1 bus1=RML1051843420.1.2.3.0,Phases=3,kv=0.22,kW=0.64188,pf=0.92,Vminpu=0.92,Vmaxpu=1.5,model=1,daily=RES2_1,status=variable
new load.3000027330M1 bus1=RML1051843350.1.2.3.0,Phases=3,kv=0.22,kW=0.96712,pf=0.92,Vminpu=0.92,Vmaxpu=1.5,model=1,daily=RES1_1,status=variable
new load.3000027346M1 bus1=RML1051843350.1.2.3.0,Phases=3,kv=0.22,kW=0.79052,pf=0.92,Vminpu=0.92,Vmaxpu=1.5,model=1,daily=COM1_2,status=variable
new load.3000027354M1 bus1=RML1051843350.1.2.3.0,Phases=3,kv=0.22,kW=2.38324,pf=0.92,Vminpu=0.92,Vmaxpu=1.5,model=1,daily=RES3_1,status=variable
new load.3000027362M1 bus1=RML1051843350.1.2.3.0,Phases=3,kv=0.22,kW=0.6172,pf=0.92,Vminpu=0.92,Vmaxpu=1.5,model=1,daily=RES2_1,status=variable
new load.3000027370M1 bus1=RML1053001122.1.2.3.0,Phases=3,kv=0.22,kW=0.41188,pf=0.92,Vminpu=0.92,Vmaxpu=1.5,model=1,daily=COM1_2,status=variable
new load.3000027378M1 bus1=RML1051843343.1.2.3.0,Phases=3,kv=0.22,kW=4.15458,pf=0.92,Vminpu=0.92,Vmaxpu=1.5,model=1,daily=RES3_1,status=variable
new load.3000027386M1 bus1=RML1051843329.1.0,Phases=1,kv=0.127,kW=0.48758,pf=0.92,Vminpu=0.92,Vmaxpu=1.5,model=1,daily=RES2_1,status=variable
new load.3000027420M1 bus1=RML1051838345.2.0,Phases=1,kv=0.127,kW=0.49376,pf=0.92,Vminpu=0.92,Vmaxpu=1.5,model=1,daily=RES2_1,status=variable
new load.3000027442M1 bus1=RML1051838989.2.3.0,Phases=2,kv=0.22,kW=2.33494,pf=0.92,Vminpu=0.92,Vmaxpu=1.5,model=1,daily=RES3_1,status=variable
new load.3000027450M1 bus1=RML1051839073.2.3.0,Phases=2,kv=0.22,kW=2.39936,pf=0.92,Vminpu=0.92,Vmaxpu=1.5,model=1,daily=RES3_1,status=variable
new load.3000027461M1 bus1=RML1051839220.1.2.3.0,Phases=3,kv=0.22,kW=0.21922,pf=0.92,Vminpu=0.92,Vmaxpu=1.5,model=1,daily=COM1_2,status=variable
new load.3000027489M1 bus1=RML1051838982.3.0,Phases=1,kv=0.127,kW=0.2628,pf=0.92,Vminpu=0.92,Vmaxpu=1.5,model=1,daily=RES1_1,status=variable
new load.3000027545M1 bus1=RML1051838422.1.2.3.0,Phases=3,kv=0.22,kW=0.0155,pf=0.92,Vminpu=0.92,Vmaxpu=1.5,model=1,daily=COM1_2,status=variable
new load.3000027553M1 bus1=RML1051838506.1.2.0,Phases=2,kv=0.22,kW=2.57648,pf=0.92,Vminpu=0.92,Vmaxpu=1.5,model=1,daily=RES3_1,status=variable
new load.3000027561M1 bus1=RML1051838548.1.2.3.0,Phases=3,kv=0.22,kW=0.91344,pf=0.92,Vminpu=0.92,Vmaxpu=1.5,model=1,daily=RES2_1,status=variable
new load.3000027569M1 bus1=RML1051838548.1.2.3.0,Phases=3,kv=0.22,kW=0.46906,pf=0.92,Vminpu=0.92,Vmaxpu=1.5,model=1,daily=RES2_1,status=variable
new load.3000027580M1 bus1=RML1051843392.1.2.3.0,Phases=3,kv=0.22,kW=0.09078,pf=0.92,Vminpu=0.92,Vmaxpu=1.5,model=1,daily=COM1_2,status=variable
new load.3000027589M1 bus1=RML1051842461.1.2.3.0,Phases=3,kv=0.22,kW=0.01772,pf=0.92,Vminpu=0.92,Vmaxpu=1.5,model=1,daily=COM1_2,status=variable
new load.3000027605M1 bus1=RML1056739289.1.2.3.0,Phases=3,kv=0.22,kW=0.97876,pf=0.92,Vminpu=0.92,Vmaxpu=1.5,model=1,daily=COM3_1,status=variable
new load.3000027318M1 bus1=RML1052878860.1.2.3.0,Phases=3,kv=0.22,kW=0.09078,pf=0.92,Vminpu=0.92,Vmaxpu=1.5,model=1,daily=COM1_2,status=variable
new load.3000027326M1 bus1=RML1051843420.1.2.3.0,Phases=3,kv=0.22,kW=0.7468,pf=0.92,Vminpu=0.92,Vmaxpu=1.5,model=1,daily=RES2_1,status=variable
new load.3000027334M1 bus1=RML1051843350.1.2.3.0,Phases=3,kv=0.22,kW=0.67278,pf=0.92,Vminpu=0.92,Vmaxpu=1.5,model=1,daily=RES1_1,status=variable
new load.3000027342M1 bus1=RML1051843350.1.2.3.0,Phases=3,kv=0.22,kW=0.8332,pf=0.92,Vminpu=0.92,Vmaxpu=1.5,model=1,daily=RES2_1,status=variable
new load.3000027350M1 bus1=RML1051843350.1.2.3.0,Phases=3,kv=0.22,kW=1.0554,pf=0.92,Vminpu=0.92,Vmaxpu=1.5,model=1,daily=RES2_1,status=variable
new load.3000027358M1 bus1=RML1051843350.1.2.3.0,Phases=3,kv=0.22,kW=8.10858,pf=0.92,Vminpu=0.92,Vmaxpu=1.5,model=1,daily=RES5_2,status=variable
new load.3000027366M1 bus1=RML1051843406.1.2.3.0,Phases=3,kv=0.22,kW=4.12956,pf=0.92,Vminpu=0.92,Vmaxpu=1.5,model=1,daily=RES5_2,status=variable
new load.3000027374M1 bus1=RML1053001122.1.2.3.0,Phases=3,kv=0.22,kW=0.05536,pf=0.92,Vminpu=0.92,Vmaxpu=1.5,model=1,daily=COM1_2,status=variable
new load.3000027382M1 bus1=RML1051843315.1.2.3.0,Phases=3,kv=0.22,kW=0.07358,pf=0.92,Vminpu=0.92,Vmaxpu=1.5,model=1,daily=RES1_1,status=variable
new load.3000027399M1 bus1=RML1051838415.1.2.3.0,Phases=3,kv=0.22,kW=0.91344,pf=0.92,Vminpu=0.92,Vmaxpu=1.5,model=1,daily=RES2_1,status=variable
new load.3000027407M1 bus1=RML1051838415.1.2.3.0,Phases=3,kv=0.22,kW=0.58016,pf=0.92,Vminpu=0.92,Vmaxpu=1.5,model=1,daily=RES2_1,status=variable
new load.3000027416M1 bus1=RML1051838359.1.2.3.0,Phases=3,kv=0.22,kW=0.8147,pf=0.92,Vminpu=0.92,Vmaxpu=1.5,model=1,daily=RES2_1,status=variable
new load.3000027446M1 bus1=RML1051839024.1.2.3.0,Phases=3,kv=0.22,kW=3.8847,pf=0.92,Vminpu=0.92,Vmaxpu=1.5,model=1,daily=RES4_1,status=variable
new load.3000027457M1 bus1=RML1051839192.1.2.0,Phases=2,kv=0.22,kW=0.86406,pf=0.92,Vminpu=0.92,Vmaxpu=1.5,model=1,daily=RES2_1,status=variable
new load.3000027465M1 bus1=RML1051839206.3.0,Phases=1,kv=0.127,kW=4.08702,pf=0.92,Vminpu=0.92,Vmaxpu=1.5,model=1,daily=RES4_1,status=variable
new load.3000027476M1 bus1=RML1051839087.1.2.0,Phases=2,kv=0.22,kW=0.93814,pf=0.92,Vminpu=0.92,Vmaxpu=1.5,model=1,daily=RES2_1,status=variable
new load.3000027485M1 bus1=RML1051838996.2.3.0,Phases=2,kv=0.22,kW=3.02738,pf=0.92,Vminpu=0.92,Vmaxpu=1.5,model=1,daily=RES3_1,status=variable
new load.3000027493M1 bus1=RML1051838968.1.3.0,Phases=2,kv=0.22,kW=0.23694,pf=0.92,Vminpu=0.92,Vmaxpu=1.5,model=1,daily=COM1_2,status=variable
new load.3000027549M1 bus1=RML1051838471.2.3.0,Phases=2,kv=0.22,kW=0.29674,pf=0.92,Vminpu=0.92,Vmaxpu=1.5,model=1,daily=RES4_1,status=variable
new load.3000027557M1 bus1=RML1051838548.1.2.3.0,Phases=3,kv=0.22,kW=0.87252,pf=0.92,Vminpu=0.92,Vmaxpu=1.5,model=1,daily=RES1_1,status=variable
new load.3000027565M1 bus1=RML1051838548.1.2.3.0,Phases=3,kv=0.22,kW=0.70854,pf=0.92,Vminpu=0.92,Vmaxpu=1.5,model=1,daily=RES3_1,status=variable
new load.3000027576M1 bus1=RML1051843371.2.0,Phases=1,kv=0.127,kW=4.90174,pf=0.92,Vminpu=0.92,Vmaxpu=1.5,model=1,daily=RES6_1,status=variable
new load.3000027585M1 bus1=RML1051843399.1.2.0,Phases=2,kv=0.22,kW=5.7642,pf=0.92,Vminpu=0.92,Vmaxpu=1.5,model=1,daily=RES5_2,status=variable
new load.3000027593M1 bus1=RML1051842461.1.2.3.0,Phases=3,kv=0.22,kW=0.00222,pf=0.92,Vminpu=0.92,Vmaxpu=1.5,model=1,daily=COM1_2,status=variable
new load.3000027601M1 bus1=RML1051842461.1.2.3.0,Phases=3,kv=0.22,kW=0.00664,pf=0.92,Vminpu=0.92,Vmaxpu=1.5,model=1,daily=COM1_2,status=variable
new load.3000027313M1 bus1=RML1052878860.1.2.3.0,Phases=3,kv=0.22,kW=0.02878,pf=0.92,Vminpu=0.92,Vmaxpu=1.5,model=1,daily=COM1_2,status=variable
new load.3000027321M1 bus1=RML1051843434.1.2.3.0,Phases=3,kv=0.22,kW=0.4318,pf=0.92,Vminpu=0.92,Vmaxpu=1.5,model=1,daily=COM1_2,status=variable
new load.3000027329M1 bus1=RML1051843350.1.2.3.0,Phases=3,kv=0.22,kW=2.44766,pf=0.92,Vminpu=0.92,Vmaxpu=1.5,model=1,daily=RES3_1,status=variable
new load.3000027337M1 bus1=RML1051843350.1.2.3.0,Phases=3,kv=0.22,kW=0.6833,pf=0.92,Vminpu=0.92,Vmaxpu=1.5,model=1,daily=RES1_1,status=variable
new load.3000027345M1 bus1=RML1051843350.1.2.3.0,Phases=3,kv=0.22,kW=3.752,pf=0.92,Vminpu=0.92,Vmaxpu=1.5,model=1,daily=RES3_1,status=variable
new load.3000027353M1 bus1=RML1051843350.1.2.3.0,Phases=3,kv=0.22,kW=3.78422,pf=0.92,Vminpu=0.92,Vmaxpu=1.5,model=1,daily=RES3_1,status=variable
new load.3000027361M1 bus1=RML1051843350.1.2.3.0,Phases=3,kv=0.22,kW=0.18922,pf=0.92,Vminpu=0.92,Vmaxpu=1.5,model=1,daily=RES1_1,status=variable
new load.3000027369M1 bus1=RML1053001122.1.2.3.0,Phases=3,kv=0.22,kW=0.12178,pf=0.92,Vminpu=0.92,Vmaxpu=1.5,model=1,daily=COM1_2,status=variable
new load.3000027377M1 bus1=RML1053001122.1.2.3.0,Phases=3,kv=0.22,kW=2.52236,pf=0.92,Vminpu=0.92,Vmaxpu=1.5,model=1,daily=RES4_1,status=variable
new load.3000027385M1 bus1=RML1051843315.1.2.3.0,Phases=3,kv=0.22,kW=2.47986,pf=0.92,Vminpu=0.92,Vmaxpu=1.5,model=1,daily=RES3_1,status=variable
new load.3000027393M1 bus1=RML1051838527.1.2.0,Phases=2,kv=0.22,kW=3.55878,pf=0.92,Vminpu=0.92,Vmaxpu=1.5,model=1,daily=RES3_1,status=variable
new load.3000027402M1 bus1=RML1051838415.1.2.3.0,Phases=3,kv=0.22,kW=0.6604,pf=0.92,Vminpu=0.92,Vmaxpu=1.5,model=1,daily=RES2_1,status=variable
new load.3000027419M1 bus1=RML1051838359.1.2.3.0,Phases=3,kv=0.22,kW=0.6097,pf=0.92,Vminpu=0.92,Vmaxpu=1.5,model=1,daily=RES1_1,status=variable
new load.3000027449M1 bus1=RML1051839045.1.2.3.0,Phases=3,kv=0.22,kW=0.75298,pf=0.92,Vminpu=0.92,Vmaxpu=1.5,model=1,daily=RES2_1,status=variable
new load.3000027460M1 bus1=RML1051839192.1.2.0,Phases=2,kv=0.22,kW=0.45202,pf=0.92,Vminpu=0.92,Vmaxpu=1.5,model=1,daily=RES1_1,status=variable
new load.3000027468M1 bus1=RML1051839171.1.2.3.0,Phases=3,kv=0.22,kW=0.03086,pf=0.92,Vminpu=0.92,Vmaxpu=1.5,model=1,daily=RES2_1,status=variable
new load.3000027480M1 bus1=RML1052878867.2.3.0,Phases=2,kv=0.22,kW=0.92578,pf=0.92,Vminpu=0.92,Vmaxpu=1.5,model=1,daily=RES2_1,status=variable
new load.3000027488M1 bus1=RML1051838961.1.2.3.0,Phases=3,kv=0.22,kW=0.01234,pf=0.92,Vminpu=0.92,Vmaxpu=1.5,model=1,daily=RES2_1,status=variable
new load.3000027544M1 bus1=RML1051838401.2.0,Phases=1,kv=0.127,kW=0.0679,pf=0.92,Vminpu=0.92,Vmaxpu=1.5,model=1,daily=RES2_1,status=variable
new load.3000027552M1 bus1=RML1051838478.1.0,Phases=1,kv=0.127,kW=3.1562,pf=0.92,Vminpu=0.92,Vmaxpu=1.5,model=1,daily=RES3_1,status=variable
new load.3000027560M1 bus1=RML1051838548.1.2.3.0,Phases=3,kv=0.22,kW=0.92508,pf=0.92,Vminpu=0.92,Vmaxpu=1.5,model=1,daily=RES1_1,status=variable
new load.3000027568M1 bus1=RML1051838548.1.2.3.0,Phases=3,kv=0.22,kW=2.7053,pf=0.92,Vminpu=0.92,Vmaxpu=1.5,model=1,daily=RES3_1,status=variable
new load.3000027579M1 bus1=RML1051843385.3.0,Phases=1,kv=0.127,kW=0.40522,pf=0.92,Vminpu=0.92,Vmaxpu=1.5,model=1,daily=COM1_2,status=variable
new load.3000027588M1 bus1=RML1051842461.1.2.3.0,Phases=3,kv=0.22,kW=0.00664,pf=0.92,Vminpu=0.92,Vmaxpu=1.5,model=1,daily=COM1_2,status=variable
new load.3000027596M1 bus1=RML1051842461.1.2.3.0,Phases=3,kv=0.22,kW=0.29008,pf=0.92,Vminpu=0.92,Vmaxpu=1.5,model=1,daily=COM1_2,status=variable
new load.3000027604M1 bus1=RML1051842419.1.2.3.0,Phases=3,kv=0.22,kW=0.31444,pf=0.92,Vminpu=0.92,Vmaxpu=1.5,model=1,daily=COM1_2,status=variable
new load.3000027315M1 bus1=RML1052878860.1.2.3.0,Phases=3,kv=0.22,kW=0.25686,pf=0.92,Vminpu=0.92,Vmaxpu=1.5,model=1,daily=COM1_2,status=variable
new load.3000027323M1 bus1=RML1051843420.1.2.3.0,Phases=3,kv=0.22,kW=0.64806,pf=0.92,Vminpu=0.92,Vmaxpu=1.5,model=1,daily=RES2_1,status=variable
new load.3000027331M1 bus1=RML1051843350.1.2.3.0,Phases=3,kv=0.22,kW=0.8147,pf=0.92,Vminpu=0.92,Vmaxpu=1.5,model=1,daily=RES2_1,status=variable
new load.3000027339M1 bus1=RML1051843350.1.2.3.0,Phases=3,kv=0.22,kW=0.44152,pf=0.92,Vminpu=0.92,Vmaxpu=1.5,model=1,daily=RES1_1,status=variable
new load.3000027355M1 bus1=RML1051843350.1.2.3.0,Phases=3,kv=0.22,kW=0.67274,pf=0.92,Vminpu=0.92,Vmaxpu=1.5,model=1,daily=RES2_1,status=variable
new load.3000027363M1 bus1=RML1051843350.1.2.3.0,Phases=3,kv=0.22,kW=0.72828,pf=0.92,Vminpu=0.92,Vmaxpu=1.5,model=1,daily=RES2_1,status=variable
new load.3000027371M1 bus1=RML1053001122.1.2.3.0,Phases=3,kv=0.22,kW=3.1723,pf=0.92,Vminpu=0.92,Vmaxpu=1.5,model=1,daily=RES3_1,status=variable
new load.3000027379M1 bus1=RML1051843364.1.3.0,Phases=2,kv=0.22,kW=2.90684,pf=0.92,Vminpu=0.92,Vmaxpu=1.5,model=1,daily=RES6_1,status=variable
new load.3000027387M1 bus1=RML1051844351.1.2.0,Phases=2,kv=0.22,kW=0.54312,pf=0.92,Vminpu=0.92,Vmaxpu=1.5,model=1,daily=RES2_1,status=variable
new load.3000027396M1 bus1=RML1051838499.1.2.3.0,Phases=3,kv=0.22,kW=1.06994,pf=0.92,Vminpu=0.92,Vmaxpu=1.5,model=1,daily=COM2_1,status=variable
new load.3000027404M1 bus1=RML1051838415.1.2.3.0,Phases=3,kv=0.22,kW=0.862,pf=0.92,Vminpu=0.92,Vmaxpu=1.5,model=1,daily=RES1_1,status=variable
new load.3000027421M1 bus1=RML1051838345.2.0,Phases=1,kv=0.127,kW=0.75688,pf=0.92,Vminpu=0.92,Vmaxpu=1.5,model=1,daily=RES1_1,status=variable
new load.3000027443M1 bus1=RML1051838989.2.3.0,Phases=2,kv=0.22,kW=0.98134,pf=0.92,Vminpu=0.92,Vmaxpu=1.5,model=1,daily=RES2_1,status=variable
new load.3000027451M1 bus1=RML1051839080.1.2.3.0,Phases=3,kv=0.22,kW=0.5992,pf=0.92,Vminpu=0.92,Vmaxpu=1.5,model=1,daily=RES1_1,status=variable
new load.3000027462M1 bus1=RML1051839199.1.2.3.0,Phases=3,kv=0.22,kW=5.44938,pf=0.92,Vminpu=0.92,Vmaxpu=1.5,model=1,daily=RES4_1,status=variable
new load.3000027470M1 bus1=RML1051839178.1.2.3.0,Phases=3,kv=0.22,kW=0.3469,pf=0.92,Vminpu=0.92,Vmaxpu=1.5,model=1,daily=RES1_1,status=variable
new load.3000027482M1 bus1=RML1051839038.2.3.0,Phases=2,kv=0.22,kW=0.56782,pf=0.92,Vminpu=0.92,Vmaxpu=1.5,model=1,daily=RES2_1,status=variable
new load.3000027490M1 bus1=RML1051838968.1.3.0,Phases=2,kv=0.22,kW=0.49408,pf=0.92,Vminpu=0.92,Vmaxpu=1.5,model=1,daily=RES1_1,status=variable
new load.3000027546M1 bus1=RML1051838436.3.0,Phases=1,kv=0.127,kW=1.85184,pf=0.92,Vminpu=0.92,Vmaxpu=1.5,model=1,daily=RES3_1,status=variable
new load.3000027554M1 bus1=RML1051838506.1.2.0,Phases=2,kv=0.22,kW=1.30838,pf=0.92,Vminpu=0.92,Vmaxpu=1.5,model=1,daily=RES4_1,status=variable
new load.3000027562M1 bus1=RML1051838548.1.2.3.0,Phases=3,kv=0.22,kW=0.51226,pf=0.92,Vminpu=0.92,Vmaxpu=1.5,model=1,daily=RES2_1,status=variable
new load.3000027570M1 bus1=RML1051838548.1.2.3.0,Phases=3,kv=0.22,kW=3.38164,pf=0.92,Vminpu=0.92,Vmaxpu=1.5,model=1,daily=RES3_1,status=variable
new load.3000027581M1 bus1=RML1051843336.1.2.3.0,Phases=3,kv=0.22,kW=1.03452,pf=0.92,Vminpu=0.92,Vmaxpu=1.5,model=1,daily=COM2_1,status=variable
new load.3000027590M1 bus1=RML1051842461.1.2.3.0,Phases=3,kv=0.22,kW=0.02214,pf=0.92,Vminpu=0.92,Vmaxpu=1.5,model=1,daily=COM1_2,status=variable
new load.3000027598M1 bus1=RML1051842461.1.2.3.0,Phases=3,kv=0.22,kW=0.01328,pf=0.92,Vminpu=0.92,Vmaxpu=1.5,model=1,daily=COM1_2,status=variable
new load.3000380327M1 bus1=RML1051837512.1.2.3.0,Phases=3,kv=0.22,kW=1.24154,pf=0.92,Vminpu=0.92,Vmaxpu=1.5,model=1,daily=RES4_9,status=variable
new load.3000380335M1 bus1=RML1051837435.1.2.3.0,Phases=3,kv=0.22,kW=0.31344,pf=0.92,Vminpu=0.92,Vmaxpu=1.5,model=1,daily=RES1_4,status=variable
new load.3000380343M1 bus1=RML1051837435.1.2.3.0,Phases=3,kv=0.22,kW=2.10412,pf=0.92,Vminpu=0.92,Vmaxpu=1.5,model=1,daily=RES3_6,status=variable
new load.3000380351M1 bus1=RML1051837407.1.2.3.0,Phases=3,kv=0.22,kW=0.31784,pf=0.92,Vminpu=0.92,Vmaxpu=1.5,model=1,daily=COM1_11,status=variable
new load.3000380368M1 bus1=RML1051837442.1.2.3.0,Phases=3,kv=0.22,kW=3.59804,pf=0.92,Vminpu=0.92,Vmaxpu=1.5,model=1,daily=RES3_6,status=variable
new load.3000380378M1 bus1=RML1051837274.1.2.3.0,Phases=3,kv=0.22,kW=0.96188,pf=0.92,Vminpu=0.92,Vmaxpu=1.5,model=1,daily=COM1_11,status=variable
new load.3000380386M1 bus1=RML1051837302.1.2.0,Phases=2,kv=0.22,kW=0.35548,pf=0.92,Vminpu=0.92,Vmaxpu=1.5,model=1,daily=COM1_11,status=variable
new load.3000380394M1 bus1=RML1051837309.1.2.0,Phases=2,kv=0.22,kW=0.52276,pf=0.92,Vminpu=0.92,Vmaxpu=1.5,model=1,daily=COM1_11,status=variable
new load.3000380403M1 bus1=RML1051837428.1.2.3.0,Phases=3,kv=0.22,kW=10.89296,pf=0.92,Vminpu=0.92,Vmaxpu=1.5,model=1,daily=IND3_13,status=variable
...
